  Page 1                                    Thu Dec  5 18:13:54 2019

  ******************************************************************
  *                           E P A N E T                          *
  *                   Hydraulic and Water Quality                  *
  *                   Analysis for Pipe Networks                   *
  *                         Version 2.00.12                        *
  ******************************************************************
  
  Analysis begun Thu Dec  5 18:13:54 2019

  Analysis ended Thu Dec  5 18:13:54 2019
